Modified 4 Bus/IEEE 6 Node Base System/4busYDBal_VLN_Node.Txt

LINE-GROUND and LINE-LINE VOLTAGES BY BUS & NODE

Bus       Node    VLN (kV)   Angle      pu     Base kV    Node-Node   VLL (kV)  Angle      pu

SOURCEBUS 1       7.1993 /_    0.0   0.99997    12.470        1-2      12.47 /_   30.0   0.99997
   -      2       7.1993 /_ -120.0   0.99997    12.470        2-3      12.47 /_  -90.0   0.99997
   -      3       7.1993 /_  120.0   0.99997    12.470        3-1      12.47 /_  150.0   0.99997
N2 ...... 1       7.0983 /_   -0.3   0.98594    12.470        1-2     12.317 /_   29.7   0.98771
   -      2       7.1202 /_ -120.4   0.98897    12.470        2-3     12.327 /_  -90.4   0.98856
   -      3       7.1089 /_  119.5    0.9874    12.470        3-1     12.296 /_  149.6   0.98605
N3 ...... 1       2.2585 /_  -36.8   0.94035     4.160        1-2     3.8611 /_   -4.0   0.92816
   -      2        2.313 /_ -152.1   0.96305     4.160        2-3     3.8716 /_ -124.0   0.93067
   -      3       2.1286 /_   86.7   0.88626     4.160        3-1      3.865 /_  115.8   0.92909
N4 ...... 1       1.9052 /_  -42.7   0.79323     4.160        1-2     3.3182 /_   -8.9   0.79765
   -      2       2.0328 /_ -157.5   0.84636     4.160        2-3     3.3866 /_ -130.7   0.81409
   -      3       1.8194 /_   79.5   0.75752     4.160        3-1     3.2612 /_  109.1   0.78395
N5 ...... 1       1.8913 /_  -43.0   0.78745     4.160        1-2     3.2967 /_   -9.1   0.79248
   -      2       2.0218 /_ -157.7   0.84179     4.160        2-3     3.3679 /_ -131.0    0.8096
   -      3       1.8075 /_   79.2   0.75256     4.160        3-1     3.2377 /_  108.8    0.7783
N6 ...... 1       1.8774 /_  -43.3   0.78169     4.160        1-2     3.2753 /_   -9.4   0.78733
   -      2       2.0108 /_ -158.0   0.83723     4.160        2-3     3.3493 /_ -131.3   0.80513
   -      3       1.7956 /_   78.8   0.74763     4.160        3-1     3.2144 /_  108.5   0.77268
